FoamFile
{
    version         2.0;
    format          ascii;

    root            "/.automount/werner/Werner/bgschaid/bgschaid-foamStuff/DepositionTests";
    case            "neutralTest";
    instance        "system";
    local           "";

    class           dictionary;
    object          funkySetFieldsDict;
}

defaultVariables (
"sigma=2.5;"
"mu=30.0;"
"amp=0.4;"
);


expressions
(

/*
initBasin
{
field alpha1;
create false;
expression "1";
variables $defaultVariables;
condition "pos().z < 0";
}

initBasinPd
{
field pd;
create false;
expression "-750";
variables $defaultVariables;
condition "pos().z < 0";
}

initBasinU
{
field U;
create false;
expression "vector(0,0,0)";
variables $defaultVariables;
condition "pos().z < 0";
}
*/


initWave201
{
field alpha1;
create false;
expression "max(0,min(1,0.5 - (pos().z - ( 1.067393256568821 + amp * exp(-0.5*pow(((pos().x-mu)/sigma),2)) - pos().x * 0.001)) / 0.01))";
variables $defaultVariables;
condition "mag(pos().x- (0.05+(201-1)*0.1)) < 0.026";
}

initWave202
{
field alpha1;
create false;
expression "max(0,min(1,0.5 - (pos().z - ( 1.067374428280384 + amp * exp(-0.5*pow(((pos().x-mu)/sigma),2)) - pos().x * 0.001)) / 0.01))";
variables $defaultVariables;
condition "mag(pos().x- (0.05+(202-1)*0.1)) < 0.026";
}

initWave203
{
field alpha1;
create false;
expression "max(0,min(1,0.5 - (pos().z - ( 1.067338938095072 + amp * exp(-0.5*pow(((pos().x-mu)/sigma),2)) - pos().x * 0.001)) / 0.01))";
variables $defaultVariables;
condition "mag(pos().x- (0.05+(203-1)*0.1)) < 0.026";
}

initWave204
{
field alpha1;
create false;
expression "max(0,min(1,0.5 - (pos().z - ( 1.067281392890615 + amp * exp(-0.5*pow(((pos().x-mu)/sigma),2)) - pos().x * 0.001)) / 0.01))";
variables $defaultVariables;
condition "mag(pos().x- (0.05+(204-1)*0.1)) < 0.026";
}

initWave205
{
field alpha1;
create false;
expression "max(0,min(1,0.5 - (pos().z - ( 1.067198160694967 + amp * exp(-0.5*pow(((pos().x-mu)/sigma),2)) - pos().x * 0.001)) / 0.01))";
variables $defaultVariables;
condition "mag(pos().x- (0.05+(205-1)*0.1)) < 0.026";
}

initWave206
{
field alpha1;
create false;
expression "max(0,min(1,0.5 - (pos().z - ( 1.067086070086603 + amp * exp(-0.5*pow(((pos().x-mu)/sigma),2)) - pos().x * 0.001)) / 0.01))";
variables $defaultVariables;
condition "mag(pos().x- (0.05+(206-1)*0.1)) < 0.026";
}

initWave207
{
field alpha1;
create false;
expression "max(0,min(1,0.5 - (pos().z - ( 1.066944361417271 + amp * exp(-0.5*pow(((pos().x-mu)/sigma),2)) - pos().x * 0.001)) / 0.01))";
variables $defaultVariables;
condition "mag(pos().x- (0.05+(207-1)*0.1)) < 0.026";
}

initWave208
{
field alpha1;
create false;
expression "max(0,min(1,0.5 - (pos().z - ( 1.066773035850031 + amp * exp(-0.5*pow(((pos().x-mu)/sigma),2)) - pos().x * 0.001)) / 0.01))";
variables $defaultVariables;
condition "mag(pos().x- (0.05+(208-1)*0.1)) < 0.026";
}

initWave209
{
field alpha1;
create false;
expression "max(0,min(1,0.5 - (pos().z - ( 1.066573455689742 + amp * exp(-0.5*pow(((pos().x-mu)/sigma),2)) - pos().x * 0.001)) / 0.01))";
variables $defaultVariables;
condition "mag(pos().x- (0.05+(209-1)*0.1)) < 0.026";
}

initWave210
{
field alpha1;
create false;
expression "max(0,min(1,0.5 - (pos().z - ( 1.066347673851904 + amp * exp(-0.5*pow(((pos().x-mu)/sigma),2)) - pos().x * 0.001)) / 0.01))";
variables $defaultVariables;
condition "mag(pos().x- (0.05+(210-1)*0.1)) < 0.026";
}

initWave211
{
field alpha1;
create false;
expression "max(0,min(1,0.5 - (pos().z - ( 1.06609858377244 + amp * exp(-0.5*pow(((pos().x-mu)/sigma),2)) - pos().x * 0.001)) / 0.01))";
variables $defaultVariables;
condition "mag(pos().x- (0.05+(211-1)*0.1)) < 0.026";
}

initWave212
{
field alpha1;
create false;
expression "max(0,min(1,0.5 - (pos().z - ( 1.065829448947021 + amp * exp(-0.5*pow(((pos().x-mu)/sigma),2)) - pos().x * 0.001)) / 0.01))";
variables $defaultVariables;
condition "mag(pos().x- (0.05+(212-1)*0.1)) < 0.026";
}

initWave213
{
field alpha1;
create false;
expression "max(0,min(1,0.5 - (pos().z - ( 1.065544002810878 + amp * exp(-0.5*pow(((pos().x-mu)/sigma),2)) - pos().x * 0.001)) / 0.01))";
variables $defaultVariables;
condition "mag(pos().x- (0.05+(213-1)*0.1)) < 0.026";
}

initWave214
{
field alpha1;
create false;
expression "max(0,min(1,0.5 - (pos().z - ( 1.065246188488519 + amp * exp(-0.5*pow(((pos().x-mu)/sigma),2)) - pos().x * 0.001)) / 0.01))";
variables $defaultVariables;
condition "mag(pos().x- (0.05+(214-1)*0.1)) < 0.026";
}

initWave215
{
field alpha1;
create false;
expression "max(0,min(1,0.5 - (pos().z - ( 1.064940158683747 + amp * exp(-0.5*pow(((pos().x-mu)/sigma),2)) - pos().x * 0.001)) / 0.01))";
variables $defaultVariables;
condition "mag(pos().x- (0.05+(215-1)*0.1)) < 0.026";
}

initWave216
{
field alpha1;
create false;
expression "max(0,min(1,0.5 - (pos().z - ( 1.064630195659605 + amp * exp(-0.5*pow(((pos().x-mu)/sigma),2)) - pos().x * 0.001)) / 0.01))";
variables $defaultVariables;
condition "mag(pos().x- (0.05+(216-1)*0.1)) < 0.026";
}

initWave217
{
field alpha1;
create false;
expression "max(0,min(1,0.5 - (pos().z - ( 1.064320581088451 + amp * exp(-0.5*pow(((pos().x-mu)/sigma),2)) - pos().x * 0.001)) / 0.01))";
variables $defaultVariables;
condition "mag(pos().x- (0.05+(217-1)*0.1)) < 0.026";
}

initWave218
{
field alpha1;
create false;
expression "max(0,min(1,0.5 - (pos().z - ( 1.064014115631038 + amp * exp(-0.5*pow(((pos().x-mu)/sigma),2)) - pos().x * 0.001)) / 0.01))";
variables $defaultVariables;
condition "mag(pos().x- (0.05+(218-1)*0.1)) < 0.026";
}

initWave219
{
field alpha1;
create false;
expression "max(0,min(1,0.5 - (pos().z - ( 1.06371432992823 + amp * exp(-0.5*pow(((pos().x-mu)/sigma),2)) - pos().x * 0.001)) / 0.01))";
variables $defaultVariables;
condition "mag(pos().x- (0.05+(219-1)*0.1)) < 0.026";
}

initWave220
{
field alpha1;
create false;
expression "max(0,min(1,0.5 - (pos().z - ( 1.063424514230468 + amp * exp(-0.5*pow(((pos().x-mu)/sigma),2)) - pos().x * 0.001)) / 0.01))";
variables $defaultVariables;
condition "mag(pos().x- (0.05+(220-1)*0.1)) < 0.026";
}

initWave221
{
field alpha1;
create false;
expression "max(0,min(1,0.5 - (pos().z - ( 1.063147388417663 + amp * exp(-0.5*pow(((pos().x-mu)/sigma),2)) - pos().x * 0.001)) / 0.01))";
variables $defaultVariables;
condition "mag(pos().x- (0.05+(221-1)*0.1)) < 0.026";
}

initWave222
{
field alpha1;
create false;
expression "max(0,min(1,0.5 - (pos().z - ( 1.062885512179522 + amp * exp(-0.5*pow(((pos().x-mu)/sigma),2)) - pos().x * 0.001)) / 0.01))";
variables $defaultVariables;
condition "mag(pos().x- (0.05+(222-1)*0.1)) < 0.026";
}

initWave223
{
field alpha1;
create false;
expression "max(0,min(1,0.5 - (pos().z - ( 1.062640945045514 + amp * exp(-0.5*pow(((pos().x-mu)/sigma),2)) - pos().x * 0.001)) / 0.01))";
variables $defaultVariables;
condition "mag(pos().x- (0.05+(223-1)*0.1)) < 0.026";
}

initWave224
{
field alpha1;
create false;
expression "max(0,min(1,0.5 - (pos().z - ( 1.062415366434987 + amp * exp(-0.5*pow(((pos().x-mu)/sigma),2)) - pos().x * 0.001)) / 0.01))";
variables $defaultVariables;
condition "mag(pos().x- (0.05+(224-1)*0.1)) < 0.026";
}

initWave225
{
field alpha1;
create false;
expression "max(0,min(1,0.5 - (pos().z - ( 1.062210035724158 + amp * exp(-0.5*pow(((pos().x-mu)/sigma),2)) - pos().x * 0.001)) / 0.01))";
variables $defaultVariables;
condition "mag(pos().x- (0.05+(225-1)*0.1)) < 0.026";
}

initWave226
{
field alpha1;
create false;
expression "max(0,min(1,0.5 - (pos().z - ( 1.062025692253193 + amp * exp(-0.5*pow(((pos().x-mu)/sigma),2)) - pos().x * 0.001)) / 0.01))";
variables $defaultVariables;
condition "mag(pos().x- (0.05+(226-1)*0.1)) < 0.026";
}

initWave227
{
field alpha1;
create false;
expression "max(0,min(1,0.5 - (pos().z - ( 1.061862695372229 + amp * exp(-0.5*pow(((pos().x-mu)/sigma),2)) - pos().x * 0.001)) / 0.01))";
variables $defaultVariables;
condition "mag(pos().x- (0.05+(227-1)*0.1)) < 0.026";
}

initWave228
{
field alpha1;
create false;
expression "max(0,min(1,0.5 - (pos().z - ( 1.061720864435364 + amp * exp(-0.5*pow(((pos().x-mu)/sigma),2)) - pos().x * 0.001)) / 0.01))";
variables $defaultVariables;
condition "mag(pos().x- (0.05+(228-1)*0.1)) < 0.026";
}

initWave229
{
field alpha1;
create false;
expression "max(0,min(1,0.5 - (pos().z - ( 1.061599638829703 + amp * exp(-0.5*pow(((pos().x-mu)/sigma),2)) - pos().x * 0.001)) / 0.01))";
variables $defaultVariables;
condition "mag(pos().x- (0.05+(229-1)*0.1)) < 0.026";
}

initWave230
{
field alpha1;
create false;
expression "max(0,min(1,0.5 - (pos().z - ( 1.061498057959332 + amp * exp(-0.5*pow(((pos().x-mu)/sigma),2)) - pos().x * 0.001)) / 0.01))";
variables $defaultVariables;
condition "mag(pos().x- (0.05+(230-1)*0.1)) < 0.026";
}

initWave231
{
field alpha1;
create false;
expression "max(0,min(1,0.5 - (pos().z - ( 1.06141481125135 + amp * exp(-0.5*pow(((pos().x-mu)/sigma),2)) - pos().x * 0.001)) / 0.01))";
variables $defaultVariables;
condition "mag(pos().x- (0.05+(231-1)*0.1)) < 0.026";
}

initWave232
{
field alpha1;
create false;
expression "max(0,min(1,0.5 - (pos().z - ( 1.061348178151843 + amp * exp(-0.5*pow(((pos().x-mu)/sigma),2)) - pos().x * 0.001)) / 0.01))";
variables $defaultVariables;
condition "mag(pos().x- (0.05+(232-1)*0.1)) < 0.026";
}

initWave233
{
field alpha1;
create false;
expression "max(0,min(1,0.5 - (pos().z - ( 1.061296188113866 + amp * exp(-0.5*pow(((pos().x-mu)/sigma),2)) - pos().x * 0.001)) / 0.01))";
variables $defaultVariables;
condition "mag(pos().x- (0.05+(233-1)*0.1)) < 0.026";
}

initWave234
{
field alpha1;
create false;
expression "max(0,min(1,0.5 - (pos().z - ( 1.061256670604486 + amp * exp(-0.5*pow(((pos().x-mu)/sigma),2)) - pos().x * 0.001)) / 0.01))";
variables $defaultVariables;
condition "mag(pos().x- (0.05+(234-1)*0.1)) < 0.026";
}

initWave235
{
field alpha1;
create false;
expression "max(0,min(1,0.5 - (pos().z - ( 1.061227165087741 + amp * exp(-0.5*pow(((pos().x-mu)/sigma),2)) - pos().x * 0.001)) / 0.01))";
variables $defaultVariables;
condition "mag(pos().x- (0.05+(235-1)*0.1)) < 0.026";
}

initWave236
{
field alpha1;
create false;
expression "max(0,min(1,0.5 - (pos().z - ( 1.061205231036665 + amp * exp(-0.5*pow(((pos().x-mu)/sigma),2)) - pos().x * 0.001)) / 0.01))";
variables $defaultVariables;
condition "mag(pos().x- (0.05+(236-1)*0.1)) < 0.026";
}

initWave237
{
field alpha1;
create false;
expression "max(0,min(1,0.5 - (pos().z - ( 1.061188187919296 + amp * exp(-0.5*pow(((pos().x-mu)/sigma),2)) - pos().x * 0.001)) / 0.01))";
variables $defaultVariables;
condition "mag(pos().x- (0.05+(237-1)*0.1)) < 0.026";
}

initWave238
{
field alpha1;
create false;
expression "max(0,min(1,0.5 - (pos().z - ( 1.061173365214659 + amp * exp(-0.5*pow(((pos().x-mu)/sigma),2)) - pos().x * 0.001)) / 0.01))";
variables $defaultVariables;
condition "mag(pos().x- (0.05+(238-1)*0.1)) < 0.026";
}

initWave239
{
field alpha1;
create false;
expression "max(0,min(1,0.5 - (pos().z - ( 1.061158182406802 + amp * exp(-0.5*pow(((pos().x-mu)/sigma),2)) - pos().x * 0.001)) / 0.01))";
variables $defaultVariables;
condition "mag(pos().x- (0.05+(239-1)*0.1)) < 0.026";
}

initWave240
{
field alpha1;
create false;
expression "max(0,min(1,0.5 - (pos().z - ( 1.061140059005821 + amp * exp(-0.5*pow(((pos().x-mu)/sigma),2)) - pos().x * 0.001)) / 0.01))";
variables $defaultVariables;
condition "mag(pos().x- (0.05+(240-1)*0.1)) < 0.026";
}

initWave241
{
field alpha1;
create false;
expression "max(0,min(1,0.5 - (pos().z - ( 1.061116494556852 + amp * exp(-0.5*pow(((pos().x-mu)/sigma),2)) - pos().x * 0.001)) / 0.01))";
variables $defaultVariables;
condition "mag(pos().x- (0.05+(241-1)*0.1)) < 0.026";
}

initWave242
{
field alpha1;
create false;
expression "max(0,min(1,0.5 - (pos().z - ( 1.061085288656132 + amp * exp(-0.5*pow(((pos().x-mu)/sigma),2)) - pos().x * 0.001)) / 0.01))";
variables $defaultVariables;
condition "mag(pos().x- (0.05+(242-1)*0.1)) < 0.026";
}

initWave243
{
field alpha1;
create false;
expression "max(0,min(1,0.5 - (pos().z - ( 1.06104435096803 + amp * exp(-0.5*pow(((pos().x-mu)/sigma),2)) - pos().x * 0.001)) / 0.01))";
variables $defaultVariables;
condition "mag(pos().x- (0.05+(243-1)*0.1)) < 0.026";
}

initWave244
{
field alpha1;
create false;
expression "max(0,min(1,0.5 - (pos().z - ( 1.060991921233013 + amp * exp(-0.5*pow(((pos().x-mu)/sigma),2)) - pos().x * 0.001)) / 0.01))";
variables $defaultVariables;
condition "mag(pos().x- (0.05+(244-1)*0.1)) < 0.026";
}

initWave245
{
field alpha1;
create false;
expression "max(0,min(1,0.5 - (pos().z - ( 1.06092650928374 + amp * exp(-0.5*pow(((pos().x-mu)/sigma),2)) - pos().x * 0.001)) / 0.01))";
variables $defaultVariables;
condition "mag(pos().x- (0.05+(245-1)*0.1)) < 0.026";
}

initWave246
{
field alpha1;
create false;
expression "max(0,min(1,0.5 - (pos().z - ( 1.060846915046 + amp * exp(-0.5*pow(((pos().x-mu)/sigma),2)) - pos().x * 0.001)) / 0.01))";
variables $defaultVariables;
condition "mag(pos().x- (0.05+(246-1)*0.1)) < 0.026";
}

initWave247
{
field alpha1;
create false;
expression "max(0,min(1,0.5 - (pos().z - ( 1.060752308542763 + amp * exp(-0.5*pow(((pos().x-mu)/sigma),2)) - pos().x * 0.001)) / 0.01))";
variables $defaultVariables;
condition "mag(pos().x- (0.05+(247-1)*0.1)) < 0.026";
}

initWave248
{
field alpha1;
create false;
expression "max(0,min(1,0.5 - (pos().z - ( 1.060642089881169 + amp * exp(-0.5*pow(((pos().x-mu)/sigma),2)) - pos().x * 0.001)) / 0.01))";
variables $defaultVariables;
condition "mag(pos().x- (0.05+(248-1)*0.1)) < 0.026";
}

initWave249
{
field alpha1;
create false;
expression "max(0,min(1,0.5 - (pos().z - ( 1.06051620928253 + amp * exp(-0.5*pow(((pos().x-mu)/sigma),2)) - pos().x * 0.001)) / 0.01))";
variables $defaultVariables;
condition "mag(pos().x- (0.05+(249-1)*0.1)) < 0.026";
}

initWave250
{
field alpha1;
create false;
expression "max(0,min(1,0.5 - (pos().z - ( 1.060374907026277 + amp * exp(-0.5*pow(((pos().x-mu)/sigma),2)) - pos().x * 0.001)) / 0.01))";
variables $defaultVariables;
condition "mag(pos().x- (0.05+(250-1)*0.1)) < 0.026";
}

initWave251
{
field alpha1;
create false;
expression "max(0,min(1,0.5 - (pos().z - ( 1.060218583418933 + amp * exp(-0.5*pow(((pos().x-mu)/sigma),2)) - pos().x * 0.001)) / 0.01))";
variables $defaultVariables;
condition "mag(pos().x- (0.05+(251-1)*0.1)) < 0.026";
}

initWave252
{
field alpha1;
create false;
expression "max(0,min(1,0.5 - (pos().z - ( 1.060047838797038 + amp * exp(-0.5*pow(((pos().x-mu)/sigma),2)) - pos().x * 0.001)) / 0.01))";
variables $defaultVariables;
condition "mag(pos().x- (0.05+(252-1)*0.1)) < 0.026";
}

initWave253
{
field alpha1;
create false;
expression "max(0,min(1,0.5 - (pos().z - ( 1.059863653516226 + amp * exp(-0.5*pow(((pos().x-mu)/sigma),2)) - pos().x * 0.001)) / 0.01))";
variables $defaultVariables;
condition "mag(pos().x- (0.05+(253-1)*0.1)) < 0.026";
}

initWave254
{
field alpha1;
create false;
expression "max(0,min(1,0.5 - (pos().z - ( 1.05966706792712 + amp * exp(-0.5*pow(((pos().x-mu)/sigma),2)) - pos().x * 0.001)) / 0.01))";
variables $defaultVariables;
condition "mag(pos().x- (0.05+(254-1)*0.1)) < 0.026";
}

initWave255
{
field alpha1;
create false;
expression "max(0,min(1,0.5 - (pos().z - ( 1.059459462366361 + amp * exp(-0.5*pow(((pos().x-mu)/sigma),2)) - pos().x * 0.001)) / 0.01))";
variables $defaultVariables;
condition "mag(pos().x- (0.05+(255-1)*0.1)) < 0.026";
}

initWave256
{
field alpha1;
create false;
expression "max(0,min(1,0.5 - (pos().z - ( 1.059242307142542 + amp * exp(-0.5*pow(((pos().x-mu)/sigma),2)) - pos().x * 0.001)) / 0.01))";
variables $defaultVariables;
condition "mag(pos().x- (0.05+(256-1)*0.1)) < 0.026";
}

initWave257
{
field alpha1;
create false;
expression "max(0,min(1,0.5 - (pos().z - ( 1.059017142520224 + amp * exp(-0.5*pow(((pos().x-mu)/sigma),2)) - pos().x * 0.001)) / 0.01))";
variables $defaultVariables;
condition "mag(pos().x- (0.05+(257-1)*0.1)) < 0.026";
}

initWave258
{
field alpha1;
create false;
expression "max(0,min(1,0.5 - (pos().z - ( 1.058785728727901 + amp * exp(-0.5*pow(((pos().x-mu)/sigma),2)) - pos().x * 0.001)) / 0.01))";
variables $defaultVariables;
condition "mag(pos().x- (0.05+(258-1)*0.1)) < 0.026";
}

initWave259
{
field alpha1;
create false;
expression "max(0,min(1,0.5 - (pos().z - ( 1.058549775947992 + amp * exp(-0.5*pow(((pos().x-mu)/sigma),2)) - pos().x * 0.001)) / 0.01))";
variables $defaultVariables;
condition "mag(pos().x- (0.05+(259-1)*0.1)) < 0.026";
}

initWave260
{
field alpha1;
create false;
expression "max(0,min(1,0.5 - (pos().z - ( 1.058311074318886 + amp * exp(-0.5*pow(((pos().x-mu)/sigma),2)) - pos().x * 0.001)) / 0.01))";
variables $defaultVariables;
condition "mag(pos().x- (0.05+(260-1)*0.1)) < 0.026";
}

initWave261
{
field alpha1;
create false;
expression "max(0,min(1,0.5 - (pos().z - ( 1.058071403936857 + amp * exp(-0.5*pow(((pos().x-mu)/sigma),2)) - pos().x * 0.001)) / 0.01))";
variables $defaultVariables;
condition "mag(pos().x- (0.05+(261-1)*0.1)) < 0.026";
}

initWave262
{
field alpha1;
create false;
expression "max(0,min(1,0.5 - (pos().z - ( 1.057832534860125 + amp * exp(-0.5*pow(((pos().x-mu)/sigma),2)) - pos().x * 0.001)) / 0.01))";
variables $defaultVariables;
condition "mag(pos().x- (0.05+(262-1)*0.1)) < 0.026";
}

initWave263
{
field alpha1;
create false;
expression "max(0,min(1,0.5 - (pos().z - ( 1.057596027111843 + amp * exp(-0.5*pow(((pos().x-mu)/sigma),2)) - pos().x * 0.001)) / 0.01))";
variables $defaultVariables;
condition "mag(pos().x- (0.05+(263-1)*0.1)) < 0.026";
}

initWave264
{
field alpha1;
create false;
expression "max(0,min(1,0.5 - (pos().z - ( 1.057363450689101 + amp * exp(-0.5*pow(((pos().x-mu)/sigma),2)) - pos().x * 0.001)) / 0.01))";
variables $defaultVariables;
condition "mag(pos().x- (0.05+(264-1)*0.1)) < 0.026";
}

initWave265
{
field alpha1;
create false;
expression "max(0,min(1,0.5 - (pos().z - ( 1.057136205563934 + amp * exp(-0.5*pow(((pos().x-mu)/sigma),2)) - pos().x * 0.001)) / 0.01))";
variables $defaultVariables;
condition "mag(pos().x- (0.05+(265-1)*0.1)) < 0.026";
}

initWave266
{
field alpha1;
create false;
expression "max(0,min(1,0.5 - (pos().z - ( 1.056915491691335 + amp * exp(-0.5*pow(((pos().x-mu)/sigma),2)) - pos().x * 0.001)) / 0.01))";
variables $defaultVariables;
condition "mag(pos().x- (0.05+(266-1)*0.1)) < 0.026";
}

initWave267
{
field alpha1;
create false;
expression "max(0,min(1,0.5 - (pos().z - ( 1.056702369013251 + amp * exp(-0.5*pow(((pos().x-mu)/sigma),2)) - pos().x * 0.001)) / 0.01))";
variables $defaultVariables;
condition "mag(pos().x- (0.05+(267-1)*0.1)) < 0.026";
}

initWave268
{
field alpha1;
create false;
expression "max(0,min(1,0.5 - (pos().z - ( 1.056497687462603 + amp * exp(-0.5*pow(((pos().x-mu)/sigma),2)) - pos().x * 0.001)) / 0.01))";
variables $defaultVariables;
condition "mag(pos().x- (0.05+(268-1)*0.1)) < 0.026";
}

initWave269
{
field alpha1;
create false;
expression "max(0,min(1,0.5 - (pos().z - ( 1.056302116963284 + amp * exp(-0.5*pow(((pos().x-mu)/sigma),2)) - pos().x * 0.001)) / 0.01))";
variables $defaultVariables;
condition "mag(pos().x- (0.05+(269-1)*0.1)) < 0.026";
}

initWave270
{
field alpha1;
create false;
expression "max(0,min(1,0.5 - (pos().z - ( 1.056116117438167 + amp * exp(-0.5*pow(((pos().x-mu)/sigma),2)) - pos().x * 0.001)) / 0.01))";
variables $defaultVariables;
condition "mag(pos().x- (0.05+(270-1)*0.1)) < 0.026";
}

initWave271
{
field alpha1;
create false;
expression "max(0,min(1,0.5 - (pos().z - ( 1.055939888808112 + amp * exp(-0.5*pow(((pos().x-mu)/sigma),2)) - pos().x * 0.001)) / 0.01))";
variables $defaultVariables;
condition "mag(pos().x- (0.05+(271-1)*0.1)) < 0.026";
}

initWave272
{
field alpha1;
create false;
expression "max(0,min(1,0.5 - (pos().z - ( 1.055773500993967 + amp * exp(-0.5*pow(((pos().x-mu)/sigma),2)) - pos().x * 0.001)) / 0.01))";
variables $defaultVariables;
condition "mag(pos().x- (0.05+(272-1)*0.1)) < 0.026";
}

initWave273
{
field alpha1;
create false;
expression "max(0,min(1,0.5 - (pos().z - ( 1.055616753914574 + amp * exp(-0.5*pow(((pos().x-mu)/sigma),2)) - pos().x * 0.001)) / 0.01))";
variables $defaultVariables;
condition "mag(pos().x- (0.05+(273-1)*0.1)) < 0.026";
}

initWave274
{
field alpha1;
create false;
expression "max(0,min(1,0.5 - (pos().z - ( 1.055469307494768 + amp * exp(-0.5*pow(((pos().x-mu)/sigma),2)) - pos().x * 0.001)) / 0.01))";
variables $defaultVariables;
condition "mag(pos().x- (0.05+(274-1)*0.1)) < 0.026";
}

initWave275
{
field alpha1;
create false;
expression "max(0,min(1,0.5 - (pos().z - ( 1.055330621658388 + amp * exp(-0.5*pow(((pos().x-mu)/sigma),2)) - pos().x * 0.001)) / 0.01))";
variables $defaultVariables;
condition "mag(pos().x- (0.05+(275-1)*0.1)) < 0.026";
}

initWave276
{
field alpha1;
create false;
expression "max(0,min(1,0.5 - (pos().z - ( 1.055200006333267 + amp * exp(-0.5*pow(((pos().x-mu)/sigma),2)) - pos().x * 0.001)) / 0.01))";
variables $defaultVariables;
condition "mag(pos().x- (0.05+(276-1)*0.1)) < 0.026";
}

initWave277
{
field alpha1;
create false;
expression "max(0,min(1,0.5 - (pos().z - ( 1.055076658450243 + amp * exp(-0.5*pow(((pos().x-mu)/sigma),2)) - pos().x * 0.001)) / 0.01))";
variables $defaultVariables;
condition "mag(pos().x- (0.05+(277-1)*0.1)) < 0.026";
}

initWave278
{
field alpha1;
create false;
expression "max(0,min(1,0.5 - (pos().z - ( 1.054959585944157 + amp * exp(-0.5*pow(((pos().x-mu)/sigma),2)) - pos().x * 0.001)) / 0.01))";
variables $defaultVariables;
condition "mag(pos().x- (0.05+(278-1)*0.1)) < 0.026";
}

initWave279
{
field alpha1;
create false;
expression "max(0,min(1,0.5 - (pos().z - ( 1.054847731750852 + amp * exp(-0.5*pow(((pos().x-mu)/sigma),2)) - pos().x * 0.001)) / 0.01))";
variables $defaultVariables;
condition "mag(pos().x- (0.05+(279-1)*0.1)) < 0.026";
}

initWave280
{
field alpha1;
create false;
expression "max(0,min(1,0.5 - (pos().z - ( 1.054740000811182 + amp * exp(-0.5*pow(((pos().x-mu)/sigma),2)) - pos().x * 0.001)) / 0.01))";
variables $defaultVariables;
condition "mag(pos().x- (0.05+(280-1)*0.1)) < 0.026";
}

initWave281
{
field alpha1;
create false;
expression "max(0,min(1,0.5 - (pos().z - ( 1.054635213072002 + amp * exp(-0.5*pow(((pos().x-mu)/sigma),2)) - pos().x * 0.001)) / 0.01))";
variables $defaultVariables;
condition "mag(pos().x- (0.05+(281-1)*0.1)) < 0.026";
}

initWave282
{
field alpha1;
create false;
expression "max(0,min(1,0.5 - (pos().z - ( 1.054532138481183 + amp * exp(-0.5*pow(((pos().x-mu)/sigma),2)) - pos().x * 0.001)) / 0.01))";
variables $defaultVariables;
condition "mag(pos().x- (0.05+(282-1)*0.1)) < 0.026";
}

initWave283
{
field alpha1;
create false;
expression "max(0,min(1,0.5 - (pos().z - ( 1.054429625992601 + amp * exp(-0.5*pow(((pos().x-mu)/sigma),2)) - pos().x * 0.001)) / 0.01))";
variables $defaultVariables;
condition "mag(pos().x- (0.05+(283-1)*0.1)) < 0.026";
}

initWave284
{
field alpha1;
create false;
expression "max(0,min(1,0.5 - (pos().z - ( 1.054326383564142 + amp * exp(-0.5*pow(((pos().x-mu)/sigma),2)) - pos().x * 0.001)) / 0.01))";
variables $defaultVariables;
condition "mag(pos().x- (0.05+(284-1)*0.1)) < 0.026";
}

initWave285
{
field alpha1;
create false;
expression "max(0,min(1,0.5 - (pos().z - ( 1.054221458163719 + amp * exp(-0.5*pow(((pos().x-mu)/sigma),2)) - pos().x * 0.001)) / 0.01))";
variables $defaultVariables;
condition "mag(pos().x- (0.05+(285-1)*0.1)) < 0.026";
}

initWave286
{
field alpha1;
create false;
expression "max(0,min(1,0.5 - (pos().z - ( 1.054113679759242 + amp * exp(-0.5*pow(((pos().x-mu)/sigma),2)) - pos().x * 0.001)) / 0.01))";
variables $defaultVariables;
condition "mag(pos().x- (0.05+(286-1)*0.1)) < 0.026";
}

initWave287
{
field alpha1;
create false;
expression "max(0,min(1,0.5 - (pos().z - ( 1.054002070326645 + amp * exp(-0.5*pow(((pos().x-mu)/sigma),2)) - pos().x * 0.001)) / 0.01))";
variables $defaultVariables;
condition "mag(pos().x- (0.05+(287-1)*0.1)) < 0.026";
}

initWave288
{
field alpha1;
create false;
expression "max(0,min(1,0.5 - (pos().z - ( 1.053885734847878 + amp * exp(-0.5*pow(((pos().x-mu)/sigma),2)) - pos().x * 0.001)) / 0.01))";
variables $defaultVariables;
condition "mag(pos().x- (0.05+(288-1)*0.1)) < 0.026";
}

initWave289
{
field alpha1;
create false;
expression "max(0,min(1,0.5 - (pos().z - ( 1.0537639153109 + amp * exp(-0.5*pow(((pos().x-mu)/sigma),2)) - pos().x * 0.001)) / 0.01))";
variables $defaultVariables;
condition "mag(pos().x- (0.05+(289-1)*0.1)) < 0.026";
}

initWave290
{
field alpha1;
create false;
expression "max(0,min(1,0.5 - (pos().z - ( 1.053635942709696 + amp * exp(-0.5*pow(((pos().x-mu)/sigma),2)) - pos().x * 0.001)) / 0.01))";
variables $defaultVariables;
condition "mag(pos().x- (0.05+(290-1)*0.1)) < 0.026";
}

initWave291
{
field alpha1;
create false;
expression "max(0,min(1,0.5 - (pos().z - ( 1.053501331042257 + amp * exp(-0.5*pow(((pos().x-mu)/sigma),2)) - pos().x * 0.001)) / 0.01))";
variables $defaultVariables;
condition "mag(pos().x- (0.05+(291-1)*0.1)) < 0.026";
}

initWave292
{
field alpha1;
create false;
expression "max(0,min(1,0.5 - (pos().z - ( 1.053359646313594 + amp * exp(-0.5*pow(((pos().x-mu)/sigma),2)) - pos().x * 0.001)) / 0.01))";
variables $defaultVariables;
condition "mag(pos().x- (0.05+(292-1)*0.1)) < 0.026";
}

initWave293
{
field alpha1;
create false;
expression "max(0,min(1,0.5 - (pos().z - ( 1.053210716531725 + amp * exp(-0.5*pow(((pos().x-mu)/sigma),2)) - pos().x * 0.001)) / 0.01))";
variables $defaultVariables;
condition "mag(pos().x- (0.05+(293-1)*0.1)) < 0.026";
}

initWave294
{
field alpha1;
create false;
expression "max(0,min(1,0.5 - (pos().z - ( 1.053054381708685 + amp * exp(-0.5*pow(((pos().x-mu)/sigma),2)) - pos().x * 0.001)) / 0.01))";
variables $defaultVariables;
condition "mag(pos().x- (0.05+(294-1)*0.1)) < 0.026";
}

initWave295
{
field alpha1;
create false;
expression "max(0,min(1,0.5 - (pos().z - ( 1.052890724859513 + amp * exp(-0.5*pow(((pos().x-mu)/sigma),2)) - pos().x * 0.001)) / 0.01))";
variables $defaultVariables;
condition "mag(pos().x- (0.05+(295-1)*0.1)) < 0.026";
}

initWave296
{
field alpha1;
create false;
expression "max(0,min(1,0.5 - (pos().z - ( 1.05271985200126 + amp * exp(-0.5*pow(((pos().x-mu)/sigma),2)) - pos().x * 0.001)) / 0.01))";
variables $defaultVariables;
condition "mag(pos().x- (0.05+(296-1)*0.1)) < 0.026";
}

initWave297
{
field alpha1;
create false;
expression "max(0,min(1,0.5 - (pos().z - ( 1.052542141152074 + amp * exp(-0.5*pow(((pos().x-mu)/sigma),2)) - pos().x * 0.001)) / 0.01))";
variables $defaultVariables;
condition "mag(pos().x- (0.05+(297-1)*0.1)) < 0.026";
}

initWave298
{
field alpha1;
create false;
expression "max(0,min(1,0.5 - (pos().z - ( 1.052357922331314 + amp * exp(-0.5*pow(((pos().x-mu)/sigma),2)) - pos().x * 0.001)) / 0.01))";
variables $defaultVariables;
condition "mag(pos().x- (0.05+(298-1)*0.1)) < 0.026";
}

initWave299
{
field alpha1;
create false;
expression "max(0,min(1,0.5 - (pos().z - ( 1.052167726557536 + amp * exp(-0.5*pow(((pos().x-mu)/sigma),2)) - pos().x * 0.001)) / 0.01))";
variables $defaultVariables;
condition "mag(pos().x- (0.05+(299-1)*0.1)) < 0.026";
}

initWave300
{
field alpha1;
create false;
expression "max(0,min(1,0.5 - (pos().z - ( 1.051972137848796 + amp * exp(-0.5*pow(((pos().x-mu)/sigma),2)) - pos().x * 0.001)) / 0.01))";
variables $defaultVariables;
condition "mag(pos().x- (0.05+(300-1)*0.1)) < 0.026";
}

initWave301
{
field alpha1;
create false;
expression "max(0,min(1,0.5 - (pos().z - ( 1.051771844221546 + amp * exp(-0.5*pow(((pos().x-mu)/sigma),2)) - pos().x * 0.001)) / 0.01))";
variables $defaultVariables;
condition "mag(pos().x- (0.05+(301-1)*0.1)) < 0.026";
}

initWave302
{
field alpha1;
create false;
expression "max(0,min(1,0.5 - (pos().z - ( 1.051567538690837 + amp * exp(-0.5*pow(((pos().x-mu)/sigma),2)) - pos().x * 0.001)) / 0.01))";
variables $defaultVariables;
condition "mag(pos().x- (0.05+(302-1)*0.1)) < 0.026";
}

initWave303
{
field alpha1;
create false;
expression "max(0,min(1,0.5 - (pos().z - ( 1.05136005026961 + amp * exp(-0.5*pow(((pos().x-mu)/sigma),2)) - pos().x * 0.001)) / 0.01))";
variables $defaultVariables;
condition "mag(pos().x- (0.05+(303-1)*0.1)) < 0.026";
}

initWave304
{
field alpha1;
create false;
expression "max(0,min(1,0.5 - (pos().z - ( 1.051150074968604 + amp * exp(-0.5*pow(((pos().x-mu)/sigma),2)) - pos().x * 0.001)) / 0.01))";
variables $defaultVariables;
condition "mag(pos().x- (0.05+(304-1)*0.1)) < 0.026";
}

initWave305
{
field alpha1;
create false;
expression "max(0,min(1,0.5 - (pos().z - ( 1.050938479796349 + amp * exp(-0.5*pow(((pos().x-mu)/sigma),2)) - pos().x * 0.001)) / 0.01))";
variables $defaultVariables;
condition "mag(pos().x- (0.05+(305-1)*0.1)) < 0.026";
}

initWave306
{
field alpha1;
create false;
expression "max(0,min(1,0.5 - (pos().z - ( 1.050726036758972 + amp * exp(-0.5*pow(((pos().x-mu)/sigma),2)) - pos().x * 0.001)) / 0.01))";
variables $defaultVariables;
condition "mag(pos().x- (0.05+(306-1)*0.1)) < 0.026";
}

initWave307
{
field alpha1;
create false;
expression "max(0,min(1,0.5 - (pos().z - ( 1.050513519860488 + amp * exp(-0.5*pow(((pos().x-mu)/sigma),2)) - pos().x * 0.001)) / 0.01))";
variables $defaultVariables;
condition "mag(pos().x- (0.05+(307-1)*0.1)) < 0.026";
}

initWave308
{
field alpha1;
create false;
expression "max(0,min(1,0.5 - (pos().z - ( 1.050301633103206 + amp * exp(-0.5*pow(((pos().x-mu)/sigma),2)) - pos().x * 0.001)) / 0.01))";
variables $defaultVariables;
condition "mag(pos().x- (0.05+(308-1)*0.1)) < 0.026";
}

initWave309
{
field alpha1;
create false;
expression "max(0,min(1,0.5 - (pos().z - ( 1.050091123487528 + amp * exp(-0.5*pow(((pos().x-mu)/sigma),2)) - pos().x * 0.001)) / 0.01))";
variables $defaultVariables;
condition "mag(pos().x- (0.05+(309-1)*0.1)) < 0.026";
}

initWave310
{
field alpha1;
create false;
expression "max(0,min(1,0.5 - (pos().z - ( 1.049882600012054 + amp * exp(-0.5*pow(((pos().x-mu)/sigma),2)) - pos().x * 0.001)) / 0.01))";
variables $defaultVariables;
condition "mag(pos().x- (0.05+(310-1)*0.1)) < 0.026";
}
