/*--------------------------------*- C++ -*----------------------------------*\
| =========                 |                                                 |
| \\      /  F ield         | OpenFOAM Extend Project: Open Source CFD        |
|  \\    /   O peration     | Version:  1.6-ext                               |
|   \\  /    A nd           | Web:      www.extend-project.de                 |
|    \\/     M anipulation  |                                                 |
\*---------------------------------------------------------------------------*/
FoamFile
{
    version     2.0;
    format      ascii;
    class       dictionary;
    location    "system";
    object      fvSchemes;
}
// * * * * * * * * * * * * * * * * * * * * * * * * * * * * * * * * * * * * * //

ddtSchemes
{
    default         Euler;
}

gradSchemes
{
    default         Gauss linear;
    grad(U)         Gauss linear;
    grad(alpha1)    Gauss linear;
}

divSchemes
{
  //    default         Gauss linear;
    div(rhoPhi,U)   Gauss limitedLinearV 1;
    div(phi,alpha)   Gauss upwind;
    div(phi,omega)   Gauss upwind;
    div(phi,k)       Gauss upwind;
    //    div(phi,epsilon) Gauss limitedVanLeer 0 150;
    //    div(phi,k)       Gauss limitedVanLeer 0 20;
    div(phirb,alpha) Gauss interfaceCompression;
}

laplacianSchemes
{
    default         Gauss linear corrected;
}

interpolationSchemes
{
    default         linear;
}

snGradSchemes
{
    default         corrected;
}

fluxRequired
{
    default         no;
    pd;
    pcorr;
    alpha1;
}

// ************************************************************************* //
