/*--------------------------------*- C++ -*----------------------------------*\
| =========                 |                                                 |
| \\      /  F ield         | foam-extend: Open Source CFD                    |
|  \\    /   O peration     | Version:     3.1                                |
|   \\  /    A nd           | Web:         http://www.extend-project.de       |
|    \\/     M anipulation  |                                                 |
\*---------------------------------------------------------------------------*/
FoamFile
{
    version     2.0;
    format      ascii;
    class       dictionary;
    location    system;
    object      sampleDict;
}
// * * * * * * * * * * * * * * * * * * * * * * * * * * * * * * * * * * * * //

// Set output format : choice of
//      xmgr
//      jplot
//      gnuplot
//      raw
setFormat raw;

// Surface output format. Choice of
//      null        : suppress output
//      foamFile    : separate points, faces and values file
//      dx          : DX scalar or vector format
//      vtk         : VTK ascii format
//      raw         : x y z value format for use with e.g. gnuplot 'splot'.
//
// Note:
// other formats such as obj, stl, etc can also be written (by proxy)
// but without any values!
surfaceFormat raw;

// interpolationScheme. choice of
//      cell          : use cell-centre value only; constant over cells (default)
//      cellPoint     : use cell-centre and vertex values
//      cellPointFace : use cell-centre, vertex and face values.
// 1] vertex values determined from neighbouring cell-centre values
// 2] face values determined using the current face interpolation scheme
//    for the field (linear, gamma, etc.)
interpolationScheme cell;

// Fields to sample.
fields
(
  alpha1
);

// Set sampling definition: choice of
//      uniform             evenly distributed points on line
//      face                one point per face intersection
//      midPoint            one point per cell, inbetween two face intersections
//      midPointAndFace     combination of face and midPoint
//
//      curve               specified points, not nessecary on line, uses
//                          tracking
//      cloud               specified points, uses findCell
//
// axis: how to write point coordinate. Choice of
// - x/y/z: x/y/z coordinate only
// - xyz: three columns
//  (probably does not make sense for anything but raw)
// - distance: distance from start of sampling line (if uses line) or
//             distance from first specified sampling point
//
// type specific:
//      uniform, face, midPoint, midPointAndFace : start and end coordinate
//      uniform: extra number of sampling points
//      curve, cloud: list of coordinates
sets
(

laengs3d_1_1
{
type midPoint;
axis z;
start (
-1.9
-4.77647
-.019
);
end (
-1.9
-4.77647
4.001
);
}

laengs3d_2_1
{
type midPoint;
axis z;
start (
-1.7
-4.77647
-.018
);
end (
-1.7
-4.77647
4.002
);
}

laengs3d_3_1
{
type midPoint;
axis z;
start (
-1.5
-4.77647
-.017
);
end (
-1.5
-4.77647
4.003
);
}

laengs3d_4_1
{
type midPoint;
axis z;
start (
-1.3
-4.77647
-.016
);
end (
-1.3
-4.77647
4.004
);
}

laengs3d_5_1
{
type midPoint;
axis z;
start (
-1.1
-4.77647
-.015
);
end (
-1.1
-4.77647
4.005
);
}

laengs3d_6_1
{
type midPoint;
axis z;
start (
-.9
-4.77647
-.014
);
end (
-.9
-4.77647
4.006
);
}

laengs3d_7_1
{
type midPoint;
axis z;
start (
-.7
-4.77647
-.013
);
end (
-.7
-4.77647
4.007
);
}

laengs3d_8_1
{
type midPoint;
axis z;
start (
-.5
-4.77647
-.012
);
end (
-.5
-4.77647
4.008
);
}

laengs3d_9_1
{
type midPoint;
axis z;
start (
-.3
-4.77647
-.011
);
end (
-.3
-4.77647
4.009
);
}

laengs3d_10_1
{
type midPoint;
axis z;
start (
-.1
-4.77647
-.010
);
end (
-.1
-4.77647
4.010
);
}

laengs3d_11_1
{
type midPoint;
axis z;
start (
.1
-4.77647
-.010
);
end (
.1
-4.77647
4.010
);
}

laengs3d_12_1
{
type midPoint;
axis z;
start (
.3
-4.77647
-.009
);
end (
.3
-4.77647
4.011
);
}

laengs3d_13_1
{
type midPoint;
axis z;
start (
.5
-4.77647
-.008
);
end (
.5
-4.77647
4.012
);
}

laengs3d_14_1
{
type midPoint;
axis z;
start (
.7
-4.77647
-.007
);
end (
.7
-4.77647
4.013
);
}

laengs3d_15_1
{
type midPoint;
axis z;
start (
.9
-4.77647
-.006
);
end (
.9
-4.77647
4.014
);
}

laengs3d_16_1
{
type midPoint;
axis z;
start (
1.1
-4.77647
-.005
);
end (
1.1
-4.77647
4.015
);
}

laengs3d_17_1
{
type midPoint;
axis z;
start (
1.3
-4.77647
-.004
);
end (
1.3
-4.77647
4.016
);
}

laengs3d_18_1
{
type midPoint;
axis z;
start (
1.5
-4.77647
-.003
);
end (
1.5
-4.77647
4.017
);
}

laengs3d_19_1
{
type midPoint;
axis z;
start (
1.7
-4.77647
-.002
);
end (
1.7
-4.77647
4.018
);
}

laengs3d_20_1
{
type midPoint;
axis z;
start (
1.9
-4.77647
-.001
);
end (
1.9
-4.77647
4.019
);
}

laengs3d_21_1
{
type midPoint;
axis z;
start (
2.1
-4.77647
0
);
end (
2.1
-4.77647
4.020
);
}

laengs3d_22_1
{
type midPoint;
axis z;
start (
2.3
-4.77647
.001
);
end (
2.3
-4.77647
4.021
);
}

laengs3d_23_1
{
type midPoint;
axis z;
start (
2.5
-4.77647
.002
);
end (
2.5
-4.77647
4.022
);
}

laengs3d_24_1
{
type midPoint;
axis z;
start (
2.7
-4.77647
.003
);
end (
2.7
-4.77647
4.023
);
}

laengs3d_25_1
{
type midPoint;
axis z;
start (
2.9
-4.77647
.004
);
end (
2.9
-4.77647
4.024
);
}

laengs3d_26_1
{
type midPoint;
axis z;
start (
3.1
-4.77647
.005
);
end (
3.1
-4.77647
4.025
);
}

laengs3d_27_1
{
type midPoint;
axis z;
start (
3.3
-4.77647
.006
);
end (
3.3
-4.77647
4.026
);
}

laengs3d_28_1
{
type midPoint;
axis z;
start (
3.5
-4.77647
.007
);
end (
3.5
-4.77647
4.027
);
}

laengs3d_29_1
{
type midPoint;
axis z;
start (
3.7
-4.77647
.008
);
end (
3.7
-4.77647
4.028
);
}

laengs3d_30_1
{
type midPoint;
axis z;
start (
3.9
-4.77647
.009
);
end (
3.9
-4.77647
4.029
);
}

laengs3d_31_1
{
type midPoint;
axis z;
start (
4.1
-4.77647
.010
);
end (
4.1
-4.77647
4.030
);
}

laengs3d_32_1
{
type midPoint;
axis z;
start (
4.3
-4.77647
.011
);
end (
4.3
-4.77647
4.031
);
}

laengs3d_33_1
{
type midPoint;
axis z;
start (
4.5
-4.77647
.012
);
end (
4.5
-4.77647
4.032
);
}

laengs3d_34_1
{
type midPoint;
axis z;
start (
4.7
-4.77647
.013
);
end (
4.7
-4.77647
4.033
);
}

laengs3d_35_1
{
type midPoint;
axis z;
start (
4.9
-4.77647
.014
);
end (
4.9
-4.77647
4.034
);
}

laengs3d_36_1
{
type midPoint;
axis z;
start (
5.1
-4.77647
.015
);
end (
5.1
-4.77647
4.035
);
}

laengs3d_37_1
{
type midPoint;
axis z;
start (
5.3
-4.77647
.016
);
end (
5.3
-4.77647
4.036
);
}

laengs3d_38_1
{
type midPoint;
axis z;
start (
5.5
-4.77647
.017
);
end (
5.5
-4.77647
4.037
);
}

laengs3d_39_1
{
type midPoint;
axis z;
start (
5.7
-4.77647
.018
);
end (
5.7
-4.77647
4.038
);
}

laengs3d_40_1
{
type midPoint;
axis z;
start (
5.9
-4.77647
.019
);
end (
5.9
-4.77647
4.039
);
}

laengs3d_41_1
{
type midPoint;
axis z;
start (
6.1
-4.77647
.020
);
end (
6.1
-4.77647
4.040
);
}

laengs3d_42_1
{
type midPoint;
axis z;
start (
6.3
-4.77647
.021
);
end (
6.3
-4.77647
4.041
);
}

laengs3d_43_1
{
type midPoint;
axis z;
start (
6.5
-4.77647
.022
);
end (
6.5
-4.77647
4.042
);
}

laengs3d_44_1
{
type midPoint;
axis z;
start (
6.7
-4.77647
.023
);
end (
6.7
-4.77647
4.043
);
}

laengs3d_45_1
{
type midPoint;
axis z;
start (
6.9
-4.77647
.024
);
end (
6.9
-4.77647
4.044
);
}

laengs3d_46_1
{
type midPoint;
axis z;
start (
7.1
-4.77647
.025
);
end (
7.1
-4.77647
4.045
);
}

laengs3d_47_1
{
type midPoint;
axis z;
start (
7.3
-4.77647
.026
);
end (
7.3
-4.77647
4.046
);
}

laengs3d_48_1
{
type midPoint;
axis z;
start (
7.5
-4.77647
.027
);
end (
7.5
-4.77647
4.047
);
}

laengs3d_49_1
{
type midPoint;
axis z;
start (
7.7
-4.77647
.028
);
end (
7.7
-4.77647
4.048
);
}

laengs3d_50_1
{
type midPoint;
axis z;
start (
7.9
-4.77647
.029
);
end (
7.9
-4.77647
4.049
);
}

laengs3d_51_1
{
type midPoint;
axis z;
start (
8.1
-4.77647
.030
);
end (
8.1
-4.77647
4.050
);
}

laengs3d_52_1
{
type midPoint;
axis z;
start (
8.3
-4.77647
.031
);
end (
8.3
-4.77647
4.051
);
}

laengs3d_53_1
{
type midPoint;
axis z;
start (
8.5
-4.77647
.032
);
end (
8.5
-4.77647
4.052
);
}

laengs3d_54_1
{
type midPoint;
axis z;
start (
8.7
-4.77647
.033
);
end (
8.7
-4.77647
4.053
);
}

laengs3d_55_1
{
type midPoint;
axis z;
start (
8.9
-4.77647
.034
);
end (
8.9
-4.77647
4.054
);
}

laengs3d_56_1
{
type midPoint;
axis z;
start (
9.1
-4.77647
.035
);
end (
9.1
-4.77647
4.055
);
}

laengs3d_57_1
{
type midPoint;
axis z;
start (
9.3
-4.77647
.036
);
end (
9.3
-4.77647
4.056
);
}

laengs3d_58_1
{
type midPoint;
axis z;
start (
9.5
-4.77647
.037
);
end (
9.5
-4.77647
4.057
);
}

laengs3d_59_1
{
type midPoint;
axis z;
start (
9.7
-4.77647
.038
);
end (
9.7
-4.77647
4.058
);
}

laengs3d_60_1
{
type midPoint;
axis z;
start (
9.9
-4.77647
.039
);
end (
9.9
-4.77647
4.059
);
}

laengs3d_61_1
{
type midPoint;
axis z;
start (
10.1
-4.77647
.040
);
end (
10.1
-4.77647
4.060
);
}

laengs3d_62_1
{
type midPoint;
axis z;
start (
10.3
-4.77647
.041
);
end (
10.3
-4.77647
4.061
);
}

laengs3d_63_1
{
type midPoint;
axis z;
start (
10.5
-4.77647
.042
);
end (
10.5
-4.77647
4.062
);
}

laengs3d_64_1
{
type midPoint;
axis z;
start (
10.7
-4.77647
.043
);
end (
10.7
-4.77647
4.063
);
}

laengs3d_65_1
{
type midPoint;
axis z;
start (
10.9
-4.77647
.044
);
end (
10.9
-4.77647
4.064
);
}

laengs3d_66_1
{
type midPoint;
axis z;
start (
11.1
-4.77647
.045
);
end (
11.1
-4.77647
4.065
);
}

laengs3d_67_1
{
type midPoint;
axis z;
start (
11.3
-4.77647
.046
);
end (
11.3
-4.77647
4.066
);
}

laengs3d_68_1
{
type midPoint;
axis z;
start (
11.5
-4.77647
.047
);
end (
11.5
-4.77647
4.067
);
}

laengs3d_69_1
{
type midPoint;
axis z;
start (
11.7
-4.77647
.048
);
end (
11.7
-4.77647
4.068
);
}

laengs3d_70_1
{
type midPoint;
axis z;
start (
11.9
-4.77647
.049
);
end (
11.9
-4.77647
4.069
);
}

laengs3d_71_1
{
type midPoint;
axis z;
start (
12.1
-4.77647
.050
);
end (
12.1
-4.77647
4.070
);
}

laengs3d_72_1
{
type midPoint;
axis z;
start (
12.3
-4.77647
.051
);
end (
12.3
-4.77647
4.071
);
}

laengs3d_73_1
{
type midPoint;
axis z;
start (
12.5
-4.77647
.052
);
end (
12.5
-4.77647
4.072
);
}

laengs3d_74_1
{
type midPoint;
axis z;
start (
12.7
-4.77647
.053
);
end (
12.7
-4.77647
4.073
);
}

laengs3d_75_1
{
type midPoint;
axis z;
start (
12.9
-4.77647
.054
);
end (
12.9
-4.77647
4.074
);
}

laengs3d_76_1
{
type midPoint;
axis z;
start (
13.1
-4.77647
.055
);
end (
13.1
-4.77647
4.075
);
}

laengs3d_77_1
{
type midPoint;
axis z;
start (
13.3
-4.77647
.056
);
end (
13.3
-4.77647
4.076
);
}

laengs3d_78_1
{
type midPoint;
axis z;
start (
13.5
-4.77647
.057
);
end (
13.5
-4.77647
4.077
);
}

laengs3d_79_1
{
type midPoint;
axis z;
start (
13.7
-4.77647
.058
);
end (
13.7
-4.77647
4.078
);
}

laengs3d_80_1
{
type midPoint;
axis z;
start (
13.9
-4.77647
.059
);
end (
13.9
-4.77647
4.079
);
}

laengs3d_81_1
{
type midPoint;
axis z;
start (
14.1
-4.77647
.060
);
end (
14.1
-4.77647
4.080
);
}

laengs3d_82_1
{
type midPoint;
axis z;
start (
14.3
-4.77647
.061
);
end (
14.3
-4.77647
4.081
);
}

laengs3d_83_1
{
type midPoint;
axis z;
start (
14.5
-4.77647
.062
);
end (
14.5
-4.77647
4.082
);
}

laengs3d_84_1
{
type midPoint;
axis z;
start (
14.7
-4.77647
.063
);
end (
14.7
-4.77647
4.083
);
}

laengs3d_85_1
{
type midPoint;
axis z;
start (
14.9
-4.77647
.064
);
end (
14.9
-4.77647
4.084
);
}

laengs3d_86_1
{
type midPoint;
axis z;
start (
15.1
-4.77647
.065
);
end (
15.1
-4.77647
4.085
);
}

laengs3d_87_1
{
type midPoint;
axis z;
start (
15.3
-4.77647
.066
);
end (
15.3
-4.77647
4.086
);
}

laengs3d_88_1
{
type midPoint;
axis z;
start (
15.5
-4.77647
.067
);
end (
15.5
-4.77647
4.087
);
}

laengs3d_89_1
{
type midPoint;
axis z;
start (
15.7
-4.77647
.068
);
end (
15.7
-4.77647
4.088
);
}

laengs3d_90_1
{
type midPoint;
axis z;
start (
15.9
-4.77647
.069
);
end (
15.9
-4.77647
4.089
);
}

laengs3d_91_1
{
type midPoint;
axis z;
start (
16.1
-4.77647
.070
);
end (
16.1
-4.77647
4.090
);
}

laengs3d_92_1
{
type midPoint;
axis z;
start (
16.3
-4.77647
.071
);
end (
16.3
-4.77647
4.091
);
}

laengs3d_93_1
{
type midPoint;
axis z;
start (
16.5
-4.77647
.072
);
end (
16.5
-4.77647
4.092
);
}

laengs3d_94_1
{
type midPoint;
axis z;
start (
16.7
-4.77647
.073
);
end (
16.7
-4.77647
4.093
);
}

laengs3d_95_1
{
type midPoint;
axis z;
start (
16.9
-4.77647
.074
);
end (
16.9
-4.77647
4.094
);
}

laengs3d_96_1
{
type midPoint;
axis z;
start (
17.1
-4.77647
.075
);
end (
17.1
-4.77647
4.095
);
}

laengs3d_97_1
{
type midPoint;
axis z;
start (
17.3
-4.77647
.076
);
end (
17.3
-4.77647
4.096
);
}

laengs3d_98_1
{
type midPoint;
axis z;
start (
17.5
-4.77647
.077
);
end (
17.5
-4.77647
4.097
);
}

laengs3d_99_1
{
type midPoint;
axis z;
start (
17.7
-4.77647
.078
);
end (
17.7
-4.77647
4.098
);
}

laengs3d_100_1
{
type midPoint;
axis z;
start (
17.9
-4.77647
.079
);
end (
17.9
-4.77647
4.099
);
}

laengs3d_101_1
{
type midPoint;
axis z;
start (
18.1
-4.77647
.080
);
end (
18.1
-4.77647
4.100
);
}

laengs3d_102_1
{
type midPoint;
axis z;
start (
18.3
-4.77647
.081
);
end (
18.3
-4.77647
4.101
);
}

laengs3d_103_1
{
type midPoint;
axis z;
start (
18.5
-4.77647
.082
);
end (
18.5
-4.77647
4.102
);
}

laengs3d_104_1
{
type midPoint;
axis z;
start (
18.7
-4.77647
.083
);
end (
18.7
-4.77647
4.103
);
}

laengs3d_105_1
{
type midPoint;
axis z;
start (
18.9
-4.77647
.084
);
end (
18.9
-4.77647
4.104
);
}

laengs3d_106_1
{
type midPoint;
axis z;
start (
19.1
-4.77647
.085
);
end (
19.1
-4.77647
4.105
);
}

laengs3d_107_1
{
type midPoint;
axis z;
start (
19.3
-4.77647
.086
);
end (
19.3
-4.77647
4.106
);
}

laengs3d_108_1
{
type midPoint;
axis z;
start (
19.5
-4.77647
.087
);
end (
19.5
-4.77647
4.107
);
}

laengs3d_109_1
{
type midPoint;
axis z;
start (
19.7
-4.77647
.088
);
end (
19.7
-4.77647
4.108
);
}

laengs3d_110_1
{
type midPoint;
axis z;
start (
19.9
-4.77647
.089
);
end (
19.9
-4.77647
4.109
);
}

laengs3d_111_1
{
type midPoint;
axis z;
start (
20.1
-4.77647
.090
);
end (
20.1
-4.77647
4.110
);
}

laengs3d_112_1
{
type midPoint;
axis z;
start (
20.3
-4.77647
.091
);
end (
20.3
-4.77647
4.111
);
}

laengs3d_113_1
{
type midPoint;
axis z;
start (
20.5
-4.77647
.092
);
end (
20.5
-4.77647
4.112
);
}

laengs3d_114_1
{
type midPoint;
axis z;
start (
20.7
-4.77647
.093
);
end (
20.7
-4.77647
4.113
);
}

laengs3d_115_1
{
type midPoint;
axis z;
start (
20.9
-4.77647
.094
);
end (
20.9
-4.77647
4.114
);
}

laengs3d_116_1
{
type midPoint;
axis z;
start (
21.1
-4.77647
.095
);
end (
21.1
-4.77647
4.115
);
}

laengs3d_117_1
{
type midPoint;
axis z;
start (
21.3
-4.77647
.096
);
end (
21.3
-4.77647
4.116
);
}

laengs3d_118_1
{
type midPoint;
axis z;
start (
21.5
-4.77647
.097
);
end (
21.5
-4.77647
4.117
);
}

laengs3d_119_1
{
type midPoint;
axis z;
start (
21.7
-4.77647
.098
);
end (
21.7
-4.77647
4.118
);
}

laengs3d_120_1
{
type midPoint;
axis z;
start (
21.9
-4.77647
.099
);
end (
21.9
-4.77647
4.119
);
}

laengs3d_121_1
{
type midPoint;
axis z;
start (
22.1
-4.77647
.100
);
end (
22.1
-4.77647
4.120
);
}

laengs3d_122_1
{
type midPoint;
axis z;
start (
22.3
-4.77647
.101
);
end (
22.3
-4.77647
4.121
);
}

laengs3d_123_1
{
type midPoint;
axis z;
start (
22.5
-4.77647
.102
);
end (
22.5
-4.77647
4.122
);
}

laengs3d_124_1
{
type midPoint;
axis z;
start (
22.7
-4.77647
.103
);
end (
22.7
-4.77647
4.123
);
}

laengs3d_125_1
{
type midPoint;
axis z;
start (
22.9
-4.77647
.104
);
end (
22.9
-4.77647
4.124
);
}

laengs3d_126_1
{
type midPoint;
axis z;
start (
23.1
-4.77647
.105
);
end (
23.1
-4.77647
4.125
);
}

laengs3d_127_1
{
type midPoint;
axis z;
start (
23.3
-4.77647
.106
);
end (
23.3
-4.77647
4.126
);
}

laengs3d_128_1
{
type midPoint;
axis z;
start (
23.5
-4.77647
.107
);
end (
23.5
-4.77647
4.127
);
}

laengs3d_129_1
{
type midPoint;
axis z;
start (
23.7
-4.77647
.108
);
end (
23.7
-4.77647
4.128
);
}

laengs3d_130_1
{
type midPoint;
axis z;
start (
23.9
-4.77647
.109
);
end (
23.9
-4.77647
4.129
);
}

laengs3d_131_1
{
type midPoint;
axis z;
start (
24.1
-4.77647
.110
);
end (
24.1
-4.77647
4.130
);
}

laengs3d_132_1
{
type midPoint;
axis z;
start (
24.3
-4.77647
.111
);
end (
24.3
-4.77647
4.131
);
}

laengs3d_133_1
{
type midPoint;
axis z;
start (
24.5
-4.77647
.112
);
end (
24.5
-4.77647
4.132
);
}

laengs3d_134_1
{
type midPoint;
axis z;
start (
24.7
-4.77647
.113
);
end (
24.7
-4.77647
4.133
);
}

laengs3d_135_1
{
type midPoint;
axis z;
start (
24.9
-4.77647
.114
);
end (
24.9
-4.77647
4.134
);
}

laengs3d_136_1
{
type midPoint;
axis z;
start (
25.1
-4.77647
.115
);
end (
25.1
-4.77647
4.135
);
}

laengs3d_137_1
{
type midPoint;
axis z;
start (
25.3
-4.77647
.116
);
end (
25.3
-4.77647
4.136
);
}

laengs3d_138_1
{
type midPoint;
axis z;
start (
25.5
-4.77647
.117
);
end (
25.5
-4.77647
4.137
);
}

laengs3d_139_1
{
type midPoint;
axis z;
start (
25.7
-4.77647
.118
);
end (
25.7
-4.77647
4.138
);
}

laengs3d_140_1
{
type midPoint;
axis z;
start (
25.9
-4.77647
.119
);
end (
25.9
-4.77647
4.139
);
}

laengs3d_141_1
{
type midPoint;
axis z;
start (
26.1
-4.77647
.120
);
end (
26.1
-4.77647
4.140
);
}

laengs3d_142_1
{
type midPoint;
axis z;
start (
26.3
-4.77647
.121
);
end (
26.3
-4.77647
4.141
);
}

laengs3d_143_1
{
type midPoint;
axis z;
start (
26.5
-4.77647
.122
);
end (
26.5
-4.77647
4.142
);
}

laengs3d_144_1
{
type midPoint;
axis z;
start (
26.7
-4.77647
.123
);
end (
26.7
-4.77647
4.143
);
}

laengs3d_145_1
{
type midPoint;
axis z;
start (
26.9
-4.77647
.124
);
end (
26.9
-4.77647
4.144
);
}

laengs3d_146_1
{
type midPoint;
axis z;
start (
27.1
-4.77647
.125
);
end (
27.1
-4.77647
4.145
);
}

laengs3d_147_1
{
type midPoint;
axis z;
start (
27.3
-4.77647
.126
);
end (
27.3
-4.77647
4.146
);
}

laengs3d_148_1
{
type midPoint;
axis z;
start (
27.5
-4.77647
.127
);
end (
27.5
-4.77647
4.147
);
}

laengs3d_149_1
{
type midPoint;
axis z;
start (
27.7
-4.77647
.128
);
end (
27.7
-4.77647
4.148
);
}

laengs3d_150_1
{
type midPoint;
axis z;
start (
27.9
-4.77647
.129
);
end (
27.9
-4.77647
4.149
);
}

laengs3d_151_1
{
type midPoint;
axis z;
start (
28.1
-4.77647
.130
);
end (
28.1
-4.77647
4.150
);
}

laengs3d_152_1
{
type midPoint;
axis z;
start (
28.3
-4.77647
.131
);
end (
28.3
-4.77647
4.151
);
}

laengs3d_153_1
{
type midPoint;
axis z;
start (
28.5
-4.77647
.132
);
end (
28.5
-4.77647
4.152
);
}

laengs3d_154_1
{
type midPoint;
axis z;
start (
28.7
-4.77647
.133
);
end (
28.7
-4.77647
4.153
);
}

laengs3d_155_1
{
type midPoint;
axis z;
start (
28.9
-4.77647
.134
);
end (
28.9
-4.77647
4.154
);
}

laengs3d_156_1
{
type midPoint;
axis z;
start (
29.1
-4.77647
.135
);
end (
29.1
-4.77647
4.155
);
}

laengs3d_157_1
{
type midPoint;
axis z;
start (
29.3
-4.77647
.136
);
end (
29.3
-4.77647
4.156
);
}

laengs3d_158_1
{
type midPoint;
axis z;
start (
29.5
-4.77647
.137
);
end (
29.5
-4.77647
4.157
);
}

laengs3d_159_1
{
type midPoint;
axis z;
start (
29.7
-4.77647
.138
);
end (
29.7
-4.77647
4.158
);
}

laengs3d_160_1
{
type midPoint;
axis z;
start (
29.9
-4.77647
.139
);
end (
29.9
-4.77647
4.159
);
}

laengs3d_161_1
{
type midPoint;
axis z;
start (
30.1
-4.77647
.140
);
end (
30.1
-4.77647
4.160
);
}

laengs3d_162_1
{
type midPoint;
axis z;
start (
30.3
-4.77647
.141
);
end (
30.3
-4.77647
4.161
);
}

laengs3d_163_1
{
type midPoint;
axis z;
start (
30.5
-4.77647
.142
);
end (
30.5
-4.77647
4.162
);
}

laengs3d_164_1
{
type midPoint;
axis z;
start (
30.7
-4.77647
.143
);
end (
30.7
-4.77647
4.163
);
}

laengs3d_165_1
{
type midPoint;
axis z;
start (
30.9
-4.77647
.144
);
end (
30.9
-4.77647
4.164
);
}

laengs3d_166_1
{
type midPoint;
axis z;
start (
31.1
-4.77647
.145
);
end (
31.1
-4.77647
4.165
);
}

laengs3d_167_1
{
type midPoint;
axis z;
start (
31.3
-4.77647
.146
);
end (
31.3
-4.77647
4.166
);
}

laengs3d_168_1
{
type midPoint;
axis z;
start (
31.5
-4.77647
.147
);
end (
31.5
-4.77647
4.167
);
}

laengs3d_169_1
{
type midPoint;
axis z;
start (
31.7
-4.77647
.148
);
end (
31.7
-4.77647
4.168
);
}

laengs3d_170_1
{
type midPoint;
axis z;
start (
31.9
-4.77647
.149
);
end (
31.9
-4.77647
4.169
);
}

laengs3d_171_1
{
type midPoint;
axis z;
start (
32.1
-4.77647
.150
);
end (
32.1
-4.77647
4.170
);
}

laengs3d_172_1
{
type midPoint;
axis z;
start (
32.3
-4.77647
.151
);
end (
32.3
-4.77647
4.171
);
}

laengs3d_173_1
{
type midPoint;
axis z;
start (
32.5
-4.77647
.152
);
end (
32.5
-4.77647
4.172
);
}

laengs3d_174_1
{
type midPoint;
axis z;
start (
32.7
-4.77647
.153
);
end (
32.7
-4.77647
4.173
);
}

laengs3d_175_1
{
type midPoint;
axis z;
start (
32.9
-4.77647
.154
);
end (
32.9
-4.77647
4.174
);
}

laengs3d_176_1
{
type midPoint;
axis z;
start (
33.1
-4.77647
.155
);
end (
33.1
-4.77647
4.175
);
}

laengs3d_177_1
{
type midPoint;
axis z;
start (
33.3
-4.77647
.156
);
end (
33.3
-4.77647
4.176
);
}

laengs3d_178_1
{
type midPoint;
axis z;
start (
33.5
-4.77647
.157
);
end (
33.5
-4.77647
4.177
);
}

laengs3d_179_1
{
type midPoint;
axis z;
start (
33.7
-4.77647
.158
);
end (
33.7
-4.77647
4.178
);
}

laengs3d_180_1
{
type midPoint;
axis z;
start (
33.9
-4.77647
.159
);
end (
33.9
-4.77647
4.179
);
}

laengs3d_181_1
{
type midPoint;
axis z;
start (
34.1
-4.77647
.160
);
end (
34.1
-4.77647
4.180
);
}

laengs3d_182_1
{
type midPoint;
axis z;
start (
34.3
-4.77647
.161
);
end (
34.3
-4.77647
4.181
);
}

laengs3d_183_1
{
type midPoint;
axis z;
start (
34.5
-4.77647
.162
);
end (
34.5
-4.77647
4.182
);
}

laengs3d_184_1
{
type midPoint;
axis z;
start (
34.7
-4.77647
.163
);
end (
34.7
-4.77647
4.183
);
}

laengs3d_185_1
{
type midPoint;
axis z;
start (
34.9
-4.77647
.164
);
end (
34.9
-4.77647
4.184
);
}

laengs3d_186_1
{
type midPoint;
axis z;
start (
35.1
-4.77647
.165
);
end (
35.1
-4.77647
4.185
);
}

laengs3d_187_1
{
type midPoint;
axis z;
start (
35.3
-4.77647
.166
);
end (
35.3
-4.77647
4.186
);
}

laengs3d_188_1
{
type midPoint;
axis z;
start (
35.5
-4.77647
.167
);
end (
35.5
-4.77647
4.187
);
}

laengs3d_189_1
{
type midPoint;
axis z;
start (
35.7
-4.77647
.168
);
end (
35.7
-4.77647
4.188
);
}

laengs3d_190_1
{
type midPoint;
axis z;
start (
35.9
-4.77647
.169
);
end (
35.9
-4.77647
4.189
);
}

laengs3d_191_1
{
type midPoint;
axis z;
start (
36.1
-4.77647
.170
);
end (
36.1
-4.77647
4.190
);
}

laengs3d_192_1
{
type midPoint;
axis z;
start (
36.3
-4.77647
.171
);
end (
36.3
-4.77647
4.191
);
}

laengs3d_193_1
{
type midPoint;
axis z;
start (
36.5
-4.77647
.172
);
end (
36.5
-4.77647
4.192
);
}

laengs3d_194_1
{
type midPoint;
axis z;
start (
36.7
-4.77647
.173
);
end (
36.7
-4.77647
4.193
);
}

laengs3d_195_1
{
type midPoint;
axis z;
start (
36.9
-4.77647
.174
);
end (
36.9
-4.77647
4.194
);
}

laengs3d_196_1
{
type midPoint;
axis z;
start (
37.1
-4.77647
.175
);
end (
37.1
-4.77647
4.195
);
}

laengs3d_197_1
{
type midPoint;
axis z;
start (
37.3
-4.77647
.176
);
end (
37.3
-4.77647
4.196
);
}

laengs3d_198_1
{
type midPoint;
axis z;
start (
37.5
-4.77647
.177
);
end (
37.5
-4.77647
4.197
);
}

laengs3d_199_1
{
type midPoint;
axis z;
start (
37.7
-4.77647
.178
);
end (
37.7
-4.77647
4.198
);
}

laengs3d_200_1
{
type midPoint;
axis z;
start (
37.9
-4.77647
.179
);
end (
37.9
-4.77647
4.199
);
}

laengs3d_201_1
{
type midPoint;
axis z;
start (
38.1
-4.77647
.180
);
end (
38.1
-4.77647
4.200
);
}

laengs3d_202_1
{
type midPoint;
axis z;
start (
38.3
-4.77647
.181
);
end (
38.3
-4.77647
4.201
);
}

laengs3d_203_1
{
type midPoint;
axis z;
start (
38.5
-4.77647
.182
);
end (
38.5
-4.77647
4.202
);
}

laengs3d_204_1
{
type midPoint;
axis z;
start (
38.7
-4.77647
.183
);
end (
38.7
-4.77647
4.203
);
}

laengs3d_205_1
{
type midPoint;
axis z;
start (
38.9
-4.77647
.184
);
end (
38.9
-4.77647
4.204
);
}

laengs3d_206_1
{
type midPoint;
axis z;
start (
39.1
-4.77647
.185
);
end (
39.1
-4.77647
4.205
);
}

laengs3d_207_1
{
type midPoint;
axis z;
start (
39.3
-4.77647
.186
);
end (
39.3
-4.77647
4.206
);
}

laengs3d_208_1
{
type midPoint;
axis z;
start (
39.5
-4.77647
.187
);
end (
39.5
-4.77647
4.207
);
}

laengs3d_209_1
{
type midPoint;
axis z;
start (
39.7
-4.77647
.188
);
end (
39.7
-4.77647
4.208
);
}

laengs3d_210_1
{
type midPoint;
axis z;
start (
39.9
-4.77647
.189
);
end (
39.9
-4.77647
4.209
);
}

laengs3d_211_1
{
type midPoint;
axis z;
start (
40.1
-4.77647
.190
);
end (
40.1
-4.77647
4.210
);
}

laengs3d_212_1
{
type midPoint;
axis z;
start (
40.3
-4.77647
.191
);
end (
40.3
-4.77647
4.211
);
}

laengs3d_213_1
{
type midPoint;
axis z;
start (
40.5
-4.77647
.192
);
end (
40.5
-4.77647
4.212
);
}

laengs3d_214_1
{
type midPoint;
axis z;
start (
40.7
-4.77647
.193
);
end (
40.7
-4.77647
4.213
);
}

laengs3d_215_1
{
type midPoint;
axis z;
start (
40.9
-4.77647
.194
);
end (
40.9
-4.77647
4.214
);
}

laengs3d_216_1
{
type midPoint;
axis z;
start (
41.1
-4.77647
.195
);
end (
41.1
-4.77647
4.215
);
}

laengs3d_217_1
{
type midPoint;
axis z;
start (
41.3
-4.77647
.196
);
end (
41.3
-4.77647
4.216
);
}

laengs3d_218_1
{
type midPoint;
axis z;
start (
41.5
-4.77647
.197
);
end (
41.5
-4.77647
4.217
);
}

laengs3d_219_1
{
type midPoint;
axis z;
start (
41.7
-4.77647
.198
);
end (
41.7
-4.77647
4.218
);
}

laengs3d_220_1
{
type midPoint;
axis z;
start (
41.9
-4.77647
.199
);
end (
41.9
-4.77647
4.219
);
}

laengs3d_1_2
{
type midPoint;
axis z;
start (
-1.9
-4.32964
-.019
);
end (
-1.9
-4.32964
4.001
);
}

laengs3d_2_2
{
type midPoint;
axis z;
start (
-1.7
-4.32964
-.018
);
end (
-1.7
-4.32964
4.002
);
}

laengs3d_3_2
{
type midPoint;
axis z;
start (
-1.5
-4.32964
-.017
);
end (
-1.5
-4.32964
4.003
);
}

laengs3d_4_2
{
type midPoint;
axis z;
start (
-1.3
-4.32964
-.016
);
end (
-1.3
-4.32964
4.004
);
}

laengs3d_5_2
{
type midPoint;
axis z;
start (
-1.1
-4.32964
-.015
);
end (
-1.1
-4.32964
4.005
);
}

laengs3d_6_2
{
type midPoint;
axis z;
start (
-.9
-4.32964
-.014
);
end (
-.9
-4.32964
4.006
);
}

laengs3d_7_2
{
type midPoint;
axis z;
start (
-.7
-4.32964
-.013
);
end (
-.7
-4.32964
4.007
);
}

laengs3d_8_2
{
type midPoint;
axis z;
start (
-.5
-4.32964
-.012
);
end (
-.5
-4.32964
4.008
);
}

laengs3d_9_2
{
type midPoint;
axis z;
start (
-.3
-4.32964
-.011
);
end (
-.3
-4.32964
4.009
);
}

laengs3d_10_2
{
type midPoint;
axis z;
start (
-.1
-4.32964
-.010
);
end (
-.1
-4.32964
4.010
);
}

laengs3d_11_2
{
type midPoint;
axis z;
start (
.1
-4.32964
-.010
);
end (
.1
-4.32964
4.010
);
}

laengs3d_12_2
{
type midPoint;
axis z;
start (
.3
-4.32964
-.009
);
end (
.3
-4.32964
4.011
);
}

laengs3d_13_2
{
type midPoint;
axis z;
start (
.5
-4.32964
-.008
);
end (
.5
-4.32964
4.012
);
}

laengs3d_14_2
{
type midPoint;
axis z;
start (
.7
-4.32964
-.007
);
end (
.7
-4.32964
4.013
);
}

laengs3d_15_2
{
type midPoint;
axis z;
start (
.9
-4.32964
-.006
);
end (
.9
-4.32964
4.014
);
}

laengs3d_16_2
{
type midPoint;
axis z;
start (
1.1
-4.32964
-.005
);
end (
1.1
-4.32964
4.015
);
}

laengs3d_17_2
{
type midPoint;
axis z;
start (
1.3
-4.32964
-.004
);
end (
1.3
-4.32964
4.016
);
}

laengs3d_18_2
{
type midPoint;
axis z;
start (
1.5
-4.32964
-.003
);
end (
1.5
-4.32964
4.017
);
}

laengs3d_19_2
{
type midPoint;
axis z;
start (
1.7
-4.32964
-.002
);
end (
1.7
-4.32964
4.018
);
}

laengs3d_20_2
{
type midPoint;
axis z;
start (
1.9
-4.32964
-.001
);
end (
1.9
-4.32964
4.019
);
}

laengs3d_21_2
{
type midPoint;
axis z;
start (
2.1
-4.32964
0
);
end (
2.1
-4.32964
4.020
);
}

laengs3d_22_2
{
type midPoint;
axis z;
start (
2.3
-4.32964
.001
);
end (
2.3
-4.32964
4.021
);
}

laengs3d_23_2
{
type midPoint;
axis z;
start (
2.5
-4.32964
.002
);
end (
2.5
-4.32964
4.022
);
}

laengs3d_24_2
{
type midPoint;
axis z;
start (
2.7
-4.32964
.003
);
end (
2.7
-4.32964
4.023
);
}

laengs3d_25_2
{
type midPoint;
axis z;
start (
2.9
-4.32964
.004
);
end (
2.9
-4.32964
4.024
);
}

laengs3d_26_2
{
type midPoint;
axis z;
start (
3.1
-4.32964
.005
);
end (
3.1
-4.32964
4.025
);
}

laengs3d_27_2
{
type midPoint;
axis z;
start (
3.3
-4.32964
.006
);
end (
3.3
-4.32964
4.026
);
}

laengs3d_28_2
{
type midPoint;
axis z;
start (
3.5
-4.32964
.007
);
end (
3.5
-4.32964
4.027
);
}

laengs3d_29_2
{
type midPoint;
axis z;
start (
3.7
-4.32964
.008
);
end (
3.7
-4.32964
4.028
);
}

laengs3d_30_2
{
type midPoint;
axis z;
start (
3.9
-4.32964
.009
);
end (
3.9
-4.32964
4.029
);
}

laengs3d_31_2
{
type midPoint;
axis z;
start (
4.1
-4.32964
.010
);
end (
4.1
-4.32964
4.030
);
}

laengs3d_32_2
{
type midPoint;
axis z;
start (
4.3
-4.32964
.011
);
end (
4.3
-4.32964
4.031
);
}

laengs3d_33_2
{
type midPoint;
axis z;
start (
4.5
-4.32964
.012
);
end (
4.5
-4.32964
4.032
);
}

laengs3d_34_2
{
type midPoint;
axis z;
start (
4.7
-4.32964
.013
);
end (
4.7
-4.32964
4.033
);
}

laengs3d_35_2
{
type midPoint;
axis z;
start (
4.9
-4.32964
.014
);
end (
4.9
-4.32964
4.034
);
}

laengs3d_36_2
{
type midPoint;
axis z;
start (
5.1
-4.32964
.015
);
end (
5.1
-4.32964
4.035
);
}

laengs3d_37_2
{
type midPoint;
axis z;
start (
5.3
-4.32964
.016
);
end (
5.3
-4.32964
4.036
);
}

laengs3d_38_2
{
type midPoint;
axis z;
start (
5.5
-4.32964
.017
);
end (
5.5
-4.32964
4.037
);
}

laengs3d_39_2
{
type midPoint;
axis z;
start (
5.7
-4.32964
.018
);
end (
5.7
-4.32964
4.038
);
}

laengs3d_40_2
{
type midPoint;
axis z;
start (
5.9
-4.32964
.019
);
end (
5.9
-4.32964
4.039
);
}

laengs3d_41_2
{
type midPoint;
axis z;
start (
6.1
-4.32964
.020
);
end (
6.1
-4.32964
4.040
);
}

laengs3d_42_2
{
type midPoint;
axis z;
start (
6.3
-4.32964
.021
);
end (
6.3
-4.32964
4.041
);
}

laengs3d_43_2
{
type midPoint;
axis z;
start (
6.5
-4.32964
.022
);
end (
6.5
-4.32964
4.042
);
}

laengs3d_44_2
{
type midPoint;
axis z;
start (
6.7
-4.32964
.023
);
end (
6.7
-4.32964
4.043
);
}

laengs3d_45_2
{
type midPoint;
axis z;
start (
6.9
-4.32964
.024
);
end (
6.9
-4.32964
4.044
);
}

laengs3d_46_2
{
type midPoint;
axis z;
start (
7.1
-4.32964
.025
);
end (
7.1
-4.32964
4.045
);
}

laengs3d_47_2
{
type midPoint;
axis z;
start (
7.3
-4.32964
.026
);
end (
7.3
-4.32964
4.046
);
}

laengs3d_48_2
{
type midPoint;
axis z;
start (
7.5
-4.32964
.027
);
end (
7.5
-4.32964
4.047
);
}

laengs3d_49_2
{
type midPoint;
axis z;
start (
7.7
-4.32964
.028
);
end (
7.7
-4.32964
4.048
);
}

laengs3d_50_2
{
type midPoint;
axis z;
start (
7.9
-4.32964
.029
);
end (
7.9
-4.32964
4.049
);
}

laengs3d_51_2
{
type midPoint;
axis z;